Program Version,EnergyPlus, Version 8.6.0-198c6a3cff, YMD=2021.07.03 21:20
! <Version>, Version ID
 Version, 8.6
! <Timesteps per Hour>, #TimeSteps, Minutes per TimeStep {minutes}
 Timesteps per Hour,  4, 15
! <System Convergence Limits>, Minimum System TimeStep {minutes}, Max HVAC Iterations, Minimum Plant Iterations, Maximum Plant Iterations
 System Convergence Limits, 1, 20, 2, 8
! <Simulation Control>, Do Zone Sizing, Do System Sizing, Do Plant Sizing, Do Design Days, Do Weather Simulation, Do HVAC Sizing Simulation
 Simulation Control, Yes, Yes, No, No, Yes, No
! <Output Reporting Tolerances>, Tolerance for Time Heating Setpoint Not Met, Tolerance for Zone Cooling Setpoint Not Met Time
 Output Reporting Tolerances, 0.200, 0.200, 
! <Site:GroundTemperature:BuildingSurface>, Months From Jan to Dec {C}
 Site:GroundTemperature:BuildingSurface,  20.03,  20.03,  20.13,  20.30,  20.43,  20.52,  20.62,  20.77,  20.78,  20.55,  20.44,  20.20
! <Site:GroundTemperature:FCfactorMethod>, Months From Jan to Dec {C}
 Site:GroundTemperature:FCfactorMethod,   2.10,   1.21,   2.79,   5.27,  11.76,  16.77,  20.14,  21.17,  19.42,  15.53,  10.34,   5.52
! <Site:GroundTemperature:Shallow>, Months From Jan to Dec {C}
 Site:GroundTemperature:Shallow,  13.00,  13.00,  13.00,  13.00,  13.00,  13.00,  13.00,  13.00,  13.00,  13.00,  13.00,  13.00
! <Site:GroundTemperature:Deep>, Months From Jan to Dec {C}
 Site:GroundTemperature:Deep,  16.00,  16.00,  16.00,  16.00,  16.00,  16.00,  16.00,  16.00,  16.00,  16.00,  16.00,  16.00
! <Site:GroundReflectance>, Months From Jan to Dec {dimensionless}
 Site:GroundReflectance,  0.20,  0.20,  0.20,  0.20,  0.20,  0.20,  0.20,  0.20,  0.20,  0.20,  0.20,  0.20
! <Site:GroundReflectance:SnowModifier>, Normal, Daylighting {dimensionless}
 Site:GroundReflectance:SnowModifier,   1.000,   1.000
! <Site:GroundReflectance:Snow>, Months From Jan to Dec {dimensionless}
 Site:GroundReflectance:Snow,  0.20,  0.20,  0.20,  0.20,  0.20,  0.20,  0.20,  0.20,  0.20,  0.20,  0.20,  0.20
! <Site:GroundReflectance:Snow:Daylighting>, Months From Jan to Dec {dimensionless}
 Site:GroundReflectance:Snow:Daylighting,  0.20,  0.20,  0.20,  0.20,  0.20,  0.20,  0.20,  0.20,  0.20,  0.20,  0.20,  0.20
! <Environment:Weather Station>,Wind Sensor Height Above Ground {m},Wind Speed Profile Exponent {},Wind Speed Profile Boundary Layer Thickness {m},Air Temperature Sensor Height Above Ground {m},Wind Speed Modifier Coefficient [Internal],Temperature Modifier Coefficient [Internal]
Environment:Weather Station,10.000,0.140,270.000,1.500,1.586,9.750E-003
! <Site:Location>, Location Name, Latitude {N+/S- Deg}, Longitude {E+/W- Deg},  Time Zone Number {GMT+/-}, Elevation {m},  Standard Pressure at Elevation {Pa}, Standard RhoAir at Elevation
Site:Location,Pittsburgh Allegheny Co Ap PA USA TMY3 WMO#=725205,40.35,-79.92,-5.00,380.00,96842,1.1510
! <Building Information>, Building Name,North Axis {deg},Terrain,  Loads Convergence Tolerance Value,Temperature Convergence Tolerance Value,  Solar Distribution,Maximum Number of Warmup Days,Minimum Number of Warmup Days
 Building Information,Building,30.000,City,4.00000E-002,0.40000,FullExterior,25,6
! <Inside Convection Algorithm>, Algorithm {Simple | TARP | CeilingDiffuser | AdaptiveConvectionAlgorithm}
Inside Convection Algorithm,Simple
! <Outside Convection Algorithm>, Algorithm {SimpleCombined | TARP | MoWitt | DOE-2 | AdaptiveConvectionAlgorithm}
Outside Convection Algorithm,SimpleCombined
! <Sky Radiance Distribution>, Value {Anisotropic}
Sky Radiance Distribution,Anisotropic
! <Zone Air Solution Algorithm>, Value {ThirdOrderBackwardDifference | AnalyticalSolution | EulerMethod}
 Zone Air Solution Algorithm, ThirdOrderBackwardDifference
! <Zone Air Carbon Dioxide Balance Simulation>, Simulation {Yes/No}, Carbon Dioxide Concentration
 Zone Air Carbon Dioxide Balance Simulation, No,N/A
! <Zone Air Generic Contaminant Balance Simulation>, Simulation {Yes/No}, Generic Contaminant Concentration
 Zone Air Generic Contaminant Balance Simulation, No,N/A
! <Zone Air Mass Flow Balance Simulation>, Enforce Mass Balance, Adjust Zone Mixing, Adjust Zone Infiltration {AddInfiltration | AdjustInfiltration | None}, Infiltration Zones {MixingSourceZonesOnly | AllZones}
 Zone Air Mass Flow Balance Simulation, No,N/A,N/A,N/A
! <Environment:Site Atmospheric Variation>,Wind Speed Profile Exponent {},Wind Speed Profile Boundary Layer Thickness {m},Air Temperature Gradient Coefficient {K/m}
Environment:Site Atmospheric Variation,0.330,460.000,6.500000E-003
! <SurfaceGeometry>,Starting Corner,Vertex Input Direction,Coordinate System,Daylight Reference Point Coordinate System,Rectangular (Simple) Surface Coordinate System
 Surface Geometry,UpperLeftCorner,Counterclockwise,RelativeCoordinateSystem,RelativeCoordinateSystem,RelativeToZoneOrigin
! <Surface Heat Transfer Algorithm>, Value {CTF - ConductionTransferFunction | EMPD - MoisturePenetrationDepthConductionTransferFunction | CondFD - ConductionFiniteDifference | HAMT - CombinedHeatAndMoistureFiniteElement} - Description,Inside Surface Max Temperature Limit{C}, Surface Convection Coefficient Lower Limit {W/m2-K}, Surface Convection Coefficient Upper Limit {W/m2-K}
Surface Heat Transfer Algorithm, CTF - ConductionTransferFunction,200,0.10,1000.0
! <Shading Summary>, Number of Fixed Detached Shades, Number of Building Detached Shades, Number of Attached Shades
 Shading Summary,0,0,0
! <Zone Summary>, Number of Zones, Number of Zone Surfaces, Number of SubSurfaces
 Zone Summary,2,14,2
! <Zone Information>,Zone Name,North Axis {deg},Origin X-Coordinate {m},Origin Y-Coordinate {m},Origin Z-Coordinate {m},Centroid X-Coordinate {m},Centroid Y-Coordinate {m},Centroid Z-Coordinate {m},Type,Zone Multiplier,Zone List Multiplier,Minimum X {m},Maximum X {m},Minimum Y {m},Maximum Y {m},Minimum Z {m},Maximum Z {m},Ceiling Height {m},Volume {m3},Zone Inside Convection Algorithm {Simple-Detailed-CeilingDiffuser-TrombeWall},Zone Outside Convection Algorithm {Simple-Detailed-Tarp-MoWitt-DOE-2-BLAST}, Floor Area {m2},Exterior Gross Wall Area {m2},Exterior Net Wall Area {m2},Exterior Window Area {m2}, Number of Surfaces, Number of SubSurfaces, Number of Shading SubSurfaces,  Part of Total Building Area
 Zone Information, PLENUM-1,0.0,0.00,0.00,0.00,4.96,0.60,3.00,1,1,1,0.00,9.93,-4.00,5.20,2.70,3.30,0.61,28.80,Simple,Simple,48.00,16.80,16.80,0.00,6,0,0,Yes
 Zone Information, SPACE1-1,0.0,0.00,0.00,0.00,4.96,0.60,1.35,1,1,1,0.00,9.93,-4.00,5.20,0.00,2.70,2.70,129.60,Simple,Simple,48.00,75.60,66.48,9.13,6,2,0,Yes
! <Zone Internal Gains/Equipment Information - Nominal>,Zone Name, Floor Area {m2},# Occupants,Area per Occupant {m2/person},Occupant per Area {person/m2},Interior Lighting {W/m2},Electric Load {W/m2},Gas Load {W/m2},Other Load {W/m2},Hot Water Eq {W/m2},Steam Equipment {W/m2},Sum Loads per Area {W/m2},Outdoor Controlled Baseboard Heat
 Zone Internal Gains, PLENUM-1,48.00,0.0,N/A,0.000,0.000,0.000,0.000,0.000,0.000,0.000,0.000,No
 Zone Internal Gains, SPACE1-1,48.00,11.0,4.364,0.229,33.000,22.000,0.000,0.000,0.000,0.000,55.000,No
! <People Internal Gains - Nominal>,Name,Schedule Name,Zone Name,Zone Floor Area {m2},# Zone Occupants,Number of People {},People/Floor Area {person/m2},Floor Area per person {m2/person},Fraction Radiant,Fraction Convected,Sensible Fraction Calculation,Activity level,ASHRAE 55 Warnings,Carbon Dioxide Generation Rate,Nominal Minimum Number of People,Nominal Maximum Number of People,MRT Calculation Type,Work Efficiency, Clothing Insulation Calculation Method,Clothing Insulation Calculation Method Schedule,Clothing,Air Velocity,Fanger Calculation,Pierce Calculation,KSU Calculation
 People Internal Gains, SPACE1-1 PEOPLE 1,OCCUPY-1,SPACE1-1,48.00,11.0,11.0,0.229,4.364,0.300,0.700,AutoCalculate,ACTSCHD,No,3.8200E-008,0,11,Zone Averaged,WORKEFFSCH,Dynamic Clothing Model ASHRAE55,N/A,Constant-1.0,AIRVELOCITYSCH,Yes,No,No
! <Lights Internal Gains - Nominal>,Name,Schedule Name,Zone Name,Zone Floor Area {m2},# Zone Occupants,Lighting Level {W},Lights/Floor Area {W/m2},Lights per person {W/person},Fraction Return Air,Fraction Radiant,Fraction Short Wave,Fraction Convected,Fraction Replaceable,End-Use Category,Nominal Minimum Lighting Level {W},Nominal Maximum Lighting Level {W}
 Lights Internal Gains, SPACE1-1 LIGHTS 1,LIGHTS-1,SPACE1-1,48.00,11.0,1584.000,33.000,144.000,0.200,0.590,0.200,1.000E-002,0.000,GeneralLights,79.200,1584.000
! <ElectricEquipment Internal Gains - Nominal>,Name,Schedule Name,Zone Name,Zone Floor Area {m2},# Zone Occupants,Equipment Level {W},Equipment/Floor Area {W/m2},Equipment per person {W/person},Fraction Latent,Fraction Radiant,Fraction Lost,Fraction Convected,End-Use SubCategory,Nominal Minimum Equipment Level {W},Nominal Maximum Equipment Level {W}
 ElectricEquipment Internal Gains, SPACE1-1 ELECEQ 1,EQUIP-1,SPACE1-1,48.00,11.0,1056.000,22.000,96.000,0.000,0.300,0.000,0.700,General,21.120,950.400
! <Shadowing/Sun Position Calculations> [Annual Simulations], Calculation Method, Value {days}, Allowable Number Figures in Shadow Overlap {}, Polygon Clipping Algorithm, Sky Diffuse Modeling Algorithm
Shadowing/Sun Position Calculations,AverageOverDaysInFrequency,20,15000,SutherlandHodgman,SimpleSkyDiffuseModeling
! <Infiltration Airflow Stats - Nominal>,Name,Schedule Name,Zone Name, Zone Floor Area {m2}, # Zone Occupants,Design Volume Flow Rate {m3/s},Volume Flow Rate/Floor Area {m3/s/m2},Volume Flow Rate/Exterior Surface Area {m3/s/m2},ACH - Air Changes per Hour,Equation A - Constant Term Coefficient {},Equation B - Temperature Term Coefficient {1/C},Equation C - Velocity Term Coefficient {s/m}, Equation D - Velocity Squared Term Coefficient {s2/m2}
 ZoneInfiltration Airflow Stats, SPACE1-1 INFIL 1,INFIL-SCH,SPACE1-1,48.00,11.0,1.670E-002,3.479E-004,2.209E-004,0.464,0.000,0.000,0.224,0.000
! <AirFlow Model>, Simple
 AirFlow Model, Simple
! <RoomAir Model>, Zone Name, Mixing/Mundt/UCSDDV/UCSDCV/UCSDUFI/UCSDUFE/User Defined
RoomAir Model,PLENUM-1,Mixing/Well-Stirred
RoomAir Model,SPACE1-1,Mixing/Well-Stirred
! <AirflowNetwork Model:Control>, No Multizone or Distribution/Multizone with Distribution/Multizone without Distribution/Multizone with Distribution only during Fan Operation
AirflowNetwork Model:Control,NoMultizoneOrDistribution
! <Zone Volume Capacitance Multiplier>, Sensible Heat Capacity Multiplier, Moisture Capacity Multiplier, Carbon Dioxide Capacity Multiplier, Generic Contaminant Capacity Multiplier
Zone Volume Capacitance Multiplier,   1.000 ,   1.000,   1.000,   1.000
! <Load Timesteps in Zone Design Calculation Averaging Window>, Value
 Load Timesteps in Zone Design Calculation Averaging Window,    4
! <Heating Sizing Factor Information>, Sizing Factor ID, Value
 Heating Sizing Factor Information, Global,   1.3000    
 Heating Sizing Factor Information, Zone SPACE1-1,   1.3000    
! <Cooling Sizing Factor Information>, Sizing Factor ID, Value
 Cooling Sizing Factor Information, Global,   1.3000    
 Cooling Sizing Factor Information, Zone SPACE1-1,   1.3000    
! <Zone Sizing Information>, Zone Name, Load Type, Calc Des Load {W}, User Des Load {W}, Calc Des Air Flow Rate {m3/s}, User Des Air Flow Rate {m3/s}, Design Day Name, Date/Time of Peak, Temperature at Peak {C}, Humidity Ratio at Peak {kgWater/kgDryAir}, Floor Area {m2}, # Occupants, Calc Outdoor Air Flow Rate {m3/s}, Calc DOAS Heat Addition Rate {W}
 Zone Sizing Information, SPACE1-1, Cooling, 5034.84839, 6545.30291, 0.54224, 0.70491, PITTSBURGH ALLEGHENY CO AP ANN CLG .4% CONDNS DB=>MWB, 7/21 16:00:00, 31.60600, 1.39554E-002, 48.00000, 11.00000, 7.63040E-002, 0.00000
 Zone Sizing Information, SPACE1-1, Heating, 4061.69112, 5280.19846, 0.25078, 0.32601, PITTSBURGH ALLEGHENY CO AP ANN HTG 99.6% CONDNS DB, 1/21 24:00:00, -15.40000, 1.02482E-003, 48.00000, 11.00000, 7.63040E-002, 0.00000
! <System Sizing Information>, System Name, Field Description, Value
 System Sizing Information, VAV SYS 1, Calculated Cooling Design Air Flow Rate [m3/s], 0.70491
 System Sizing Information, VAV SYS 1, User Cooling Design Air Flow Rate [m3/s], 0.70491
 System Sizing Information, VAV SYS 1, Calculated Heating Design Air Flow Rate [m3/s], 0.32601
 System Sizing Information, VAV SYS 1, User Heating Design Air Flow Rate [m3/s], 0.32601
! <Component Sizing Information>, Component Type, Component Name, Input Field Description, Value
 Component Sizing Information, AirTerminal:SingleDuct:VAV:Reheat, SPACE1-1 VAV REHEAT, Design Size Maximum Air Flow Rate [m3/s], 0.70491
 Component Sizing Information, AirTerminal:SingleDuct:VAV:Reheat, SPACE1-1 VAV REHEAT, Design Size Constant Minimum Air Flow Fraction, 0.20000
 Component Sizing Information, AirTerminal:SingleDuct:VAV:Reheat, SPACE1-1 VAV REHEAT, User-Specified Constant Minimum Air Flow Fraction, 0.10000
 Component Sizing Information, AirTerminal:SingleDuct:VAV:Reheat, SPACE1-1 VAV REHEAT, Design Size Minimum Air Flow Rate [m3/s], 7.04914E-002
 Component Sizing Information, AirTerminal:SingleDuct:VAV:Reheat, SPACE1-1 VAV REHEAT, Design Size Maximum Flow per Zone Floor Area during Reheat [m3/s-m2], 1.46857E-002
 Component Sizing Information, AirTerminal:SingleDuct:VAV:Reheat, SPACE1-1 VAV REHEAT, Design Size Maximum Flow Fraction during Reheat [], 1.00000
 Component Sizing Information, Coil:Heating:Electric, SPACE1-1 ZONE COIL, Design Size Nominal Capacity [W], 6457.55830
 Component Sizing Information, AirLoopHVAC, VAV SYS 1, Design Supply Air Flow Rate [m3/s], 0.70491
 Component Sizing Information, Controller:OutdoorAir, OA CONTROLLER 1, Maximum Outdoor Air Flow Rate [m3/s], 0.70491
 Component Sizing Information, Controller:OutdoorAir, OA CONTROLLER 1, Minimum Outdoor Air Flow Rate [m3/s], 7.63040E-002
 Component Sizing Information, Coil:Cooling:DX:TwoSpeed, MAIN COOLING COIL 1, Design Size High Speed Rated Air Flow Rate [m3/s], 0.70491
 Component Sizing Information, Coil:Cooling:DX:TwoSpeed, MAIN COOLING COIL 1, Design Size High Speed Gross Rated Total Cooling Capacity [W], 13299.30157
 Component Sizing Information, Coil:Cooling:DX:TwoSpeed, MAIN COOLING COIL 1, Design Size High Speed Rated Sensible Heat Ratio, 0.75358
 Component Sizing Information, Coil:Cooling:DX:TwoSpeed, MAIN COOLING COIL 1, Design Size Low Speed Rated Air Flow Rate [m3/s], 0.23495
 Component Sizing Information, Coil:Cooling:DX:TwoSpeed, MAIN COOLING COIL 1, Design Size Low Speed Gross Rated Total Cooling Capacity [W], 4432.65721
 Component Sizing Information, Coil:Cooling:DX:TwoSpeed, MAIN COOLING COIL 1, Design Size Low Speed Gross Rated Sensible Heat Ratio, 0.75358
 Component Sizing Information, Coil:Heating:Electric, MAIN HEATING COIL 1, Design Size Nominal Capacity [W], 654.77205
 Component Sizing Information, Fan:VariableVolume, SUPPLY FAN 1, Design Size Maximum Flow Rate [m3/s], 0.70491
! <Environment>,Environment Name,Environment Type, Start Date, End Date, Start DayOfWeek, Duration {#days}, Source:Start DayOfWeek,  Use Daylight Saving, Use Holidays, Apply Weekend Holiday Rule,  Use Rain Values, Use Snow Values
! <Environment:Special Days>, Special Day Name, Special Day Type, Source, Start Date, Duration {#days}
! <Environment:Daylight Saving>, Daylight Saving Indicator, Source, Start Date, End Date
! <Environment:WarmupDays>, NumberofWarmupDays
Environment,Pittsburgh Allegheny Co Ap PA USA TMY3 WMO#=725205,WeatherFileRunPeriod,01/01,12/31,Monday,365,Use RunPeriod Specified Day,Yes,Yes,No,Yes,Yes
Environment:Daylight Saving,No,
Environment:WarmupDays,  6
! <Warmup Convergence Information>,Zone Name,Environment Type/Name,Average Warmup Temperature Difference {deltaC},Std Dev Warmup Temperature Difference {deltaC},Max Temperature Pass/Fail Convergence,Min Temperature Pass/Fail Convergence,Average Warmup Load Difference {W},Std Dev Warmup Load Difference {W},Heating Load Pass/Fail Convergence,Cooling Load Pass/Fail Convergence
 Warmup Convergence Information,PLENUM-1,RunPeriod: Pittsburgh Allegheny Co Ap PA USA TMY3 WMO#=725205,1.1733488725,1.6455811361,Pass,Pass,0.3717400959,0.5331714011,Pass,Pass
 Warmup Convergence Information,SPACE1-1,RunPeriod: Pittsburgh Allegheny Co Ap PA USA TMY3 WMO#=725205,1.9205112561,3.3362232374,Pass,Pass,1.0884693522,5.8574513260,Pass,Pass
! <Program Control Information:Threads/Parallel Sims>, Threading Supported,Maximum Number of Threads, Env Set Threads (OMP_NUM_THREADS), EP Env Set Threads (EP_OMP_NUM_THREADS), IDF Set Threads, Number of Threads Used (Interior Radiant Exchange), Number Nominal Surfaces, Number Parallel Sims
Program Control:Threads/Parallel Sims, No,1, N/A, N/A, N/A, N/A, N/A, N/A
End of Data
