Program Version,EnergyPlus, Version 8.6.0-198c6a3cff, YMD=2021.06.29 21:23,IDD_Version 8.6.0
   ************* Beginning Zone Sizing Calculations
   ** Warning ** checkSubSurfAzTiltNorm: Outward facing angle of subsurface differs more than 30.0 degrees from base surface.
   **   ~~~   ** Subsurface="WF-1" Tilt = 90.0  Azimuth = 120.0
   **   ~~~   ** Base surface="FRONT-1" Tilt = 90.0  Azimuth = 30.0
   ** Warning ** CheckUsedConstructions: There are 5 nominally unused constructions in input.
   **   ~~~   ** Each Unused construction is shown.
   ************* Construction=SB-U
   ************* Construction=FLOOR-1
   ************* Construction=DBL CLR 3MM/13MM ARG
   ************* Construction=DBL CLR 6MM/6MM AIR
   ************* Construction=DBL LOE (E2=.1) CLR 6MM/6MM AIR
   ************* Beginning System Sizing Calculations
   ************* SizeHVACSingleDuct: Potential issue with equipment sizing for AirTerminal:SingleDuct:VAV:Reheat = "SPACE1-1 VAV REHEAT".
   **   ~~~   ** User-Specified Minimum Cooling Air Flow Fraction of 0.10000 [m3/s]
   **   ~~~   ** differs from Design Size Minimum Cooling Air Flow Fraction of 0.20000 [m3/s]
   **   ~~~   ** This may, or may not, indicate mismatched component sizes.
   **   ~~~   ** Verify that the value entered is intended and is consistent with other components.
   ************* Testing Individual Branch Integrity
   ************* All Branches passed integrity testing
   ************* Testing Individual Supply Air Path Integrity
   ************* All Supply Air Paths passed integrity testing
   ************* Testing Individual Return Air Path Integrity
   ************* All Return Air Paths passed integrity testing
   ************* No node connection errors were found.
   ************* Beginning Simulation
   ** Warning ** SimHVAC: Maximum iterations (20) exceeded for all HVAC loops, at Pittsburgh Allegheny Co Ap PA USA TMY3 WMO#=725205, 03/23 22:00 - 22:15
   **   ~~~   ** The solution for one or more of the Air Loop HVAC systems did not appear to converge
   **   ~~~   ** Air System Named = VAV SYS 1 did not converge for mass flow rate
   **   ~~~   ** Check values should be zero. Most Recent values listed first.
   **   ~~~   ** Demand-to-Supply interface mass flow rate check value iteration history trace: 0.127615,0.101342,0.610553,0.381596,0.127615,0.101342,0.610553,0.381596,0.127615,0.101342,
   **   ~~~   ** Supply-to-demand interface deck 1 mass flow rate check value iteration history trace: 0.000000,0.000000,0.000000,0.000000,0.000000,0.000000,0.000000,0.000000,0.000000,0.000000,
   **   ~~~   ** Air System Named = VAV SYS 1 did not converge for temperature
   **   ~~~   ** Check values should be zero. Most Recent values listed first.
   **   ~~~   ** Demand-to-Supply interface temperature check value iteration history trace: 0.000000,0.000000,0.000000,0.000000,0.000000,0.000000,0.000000,0.000000,0.000000,0.000000,
   **   ~~~   ** Supply-to-demand interface deck 1 temperature check value iteration history trace: 8.939841E-002,0.523892,0.319717,0.114776,8.939841E-002,0.523892,0.319717,0.114776,8.939841E-002,0.523892,
   **   ~~~   ** Air System Named = VAV SYS 1 did not converge for energy
   **   ~~~   ** Check values should be zero. Most Recent values listed first.
   **   ~~~   ** Demand-to-Supply interface energy check value iteration history trace: 1945.520470,1544.985738,9308.040301,5817.534093,1945.520470,1544.985738,9308.040301,5817.534093,1945.520470,1544.985738,
   **   ~~~   ** Supply-to-demand interface deck 1 energy check value iteration history trace: 27.144086,-105.720105,260.668163,49.567460,27.144086,-105.720105,260.668163,49.567460,27.144086,-105.720105,
   **   ~~~   ** Node named SPACE1-1 IN NODE shows oscillating mass flow rate across iterations with a repeated value of 0.429782
   **   ~~~   ** Node named SPACE1-1 IN NODE mass flow rate [kg/s] iteration history trace (most recent first): 0.429782,0.200825,0.429782,0.200825,0.429782,0.200825,0.429782,0.200825,0.429782,0.200825,
   **   ~~~   ** Node named SPACE1-1 IN NODE shows oscillating temperatures across iterations with a repeated value of 14.851524
   **   ~~~   ** Node named SPACE1-1 IN NODE temperature [C] iteration history trace (most recent first): 14.851524,15.286018,14.851524,15.286018,14.851524,15.286018,14.851524,15.286018,14.851524,15.286018,
   ** Warning ** SimHVAC: Maximum iterations (20) exceeded for all HVAC loops, at Pittsburgh Allegheny Co Ap PA USA TMY3 WMO#=725205, 04/10 02:30 - 02:45
   **   ~~~   ** The solution for one or more of the Air Loop HVAC systems did not appear to converge
   **   ~~~   ** Air System Named = VAV SYS 1 did not converge for mass flow rate
   **   ~~~   ** Check values should be zero. Most Recent values listed first.
   **   ~~~   ** Demand-to-Supply interface mass flow rate check value iteration history trace: 0.167329,0.140315,0.608490,0.300846,0.167329,0.140315,0.608490,0.300846,0.167329,0.140315,
   **   ~~~   ** Supply-to-demand interface deck 1 mass flow rate check value iteration history trace: 0.000000,0.000000,0.000000,0.000000,0.000000,0.000000,0.000000,0.000000,0.000000,0.000000,
   **   ~~~   ** Air System Named = VAV SYS 1 did not converge for temperature
   **   ~~~   ** Check values should be zero. Most Recent values listed first.
   **   ~~~   ** Demand-to-Supply interface temperature check value iteration history trace: 0.000000,0.000000,0.000000,0.000000,0.000000,0.000000,0.000000,0.000000,0.000000,0.000000,
   **   ~~~   ** Supply-to-demand interface deck 1 temperature check value iteration history trace: 0.128499,0.524999,0.248602,0.147899,0.128499,0.524999,0.248602,0.147899,0.128499,0.524999,
   **   ~~~   ** Air System Named = VAV SYS 1 did not converge for energy
   **   ~~~   ** Check values should be zero. Most Recent values listed first.
   **   ~~~   ** Demand-to-Supply interface energy check value iteration history trace: 2542.272440,2131.832482,9244.926989,4570.822067,2542.272440,2131.832482,9244.926989,4570.822067,2542.272440,2131.832482,
   **   ~~~   ** Supply-to-demand interface deck 1 energy check value iteration history trace: 44.314754,-107.032000,202.687099,75.872723,44.314754,-107.032000,202.687099,75.872723,44.314754,-107.032000,
   **   ~~~   ** Node named SPACE1-1 IN NODE shows oscillating mass flow rate across iterations with a repeated value of 0.510532
   **   ~~~   ** Node named SPACE1-1 IN NODE mass flow rate [kg/s] iteration history trace (most recent first): 0.510532,0.202888,0.510532,0.202888,0.510532,0.202888,0.510532,0.202888,0.510532,0.202888,
   **   ~~~   ** Node named SPACE1-1 IN NODE shows oscillating temperatures across iterations with a repeated value of 14.828024
   **   ~~~   ** Node named SPACE1-1 IN NODE temperature [C] iteration history trace (most recent first): 14.828024,15.224524,14.828024,15.224524,14.828024,15.224524,14.828024,15.224524,14.828024,15.224524,
   ** Warning ** SimHVAC: Maximum iterations (20) exceeded for all HVAC loops, at Pittsburgh Allegheny Co Ap PA USA TMY3 WMO#=725205, 04/22 10:45 - 11:00
   **   ~~~   ** The solution for one or more of the Air Loop HVAC systems did not appear to converge
   **   ~~~   ** Air System Named = VAV SYS 1 did not converge for mass flow rate
   **   ~~~   ** Check values should be zero. Most Recent values listed first.
   **   ~~~   ** Demand-to-Supply interface mass flow rate check value iteration history trace: 0.198329,7.014338E-002,4.974900E-002,0.318222,0.198329,7.014338E-002,4.974900E-002,0.318222,0.198329,7.014338E-002,
   **   ~~~   ** Supply-to-demand interface deck 1 mass flow rate check value iteration history trace: 0.000000,0.000000,0.000000,0.000000,0.000000,0.000000,0.000000,0.000000,0.000000,0.000000,
   **   ~~~   ** Air System Named = VAV SYS 1 did not converge for temperature
   **   ~~~   ** Check values should be zero. Most Recent values listed first.
   **   ~~~   ** Demand-to-Supply interface temperature check value iteration history trace: 0.000000,0.000000,0.000000,0.000000,0.000000,0.000000,0.000000,0.000000,0.000000,0.000000,
   **   ~~~   ** Supply-to-demand interface deck 1 temperature check value iteration history trace: 6.420804E-002,4.601732E-002,0.285921,0.175695,6.420804E-002,4.601732E-002,0.285921,0.175695,6.420804E-002,4.601732E-002,
   **   ~~~   ** Air System Named = VAV SYS 1 did not converge for energy
   **   ~~~   ** Check values should be zero. Most Recent values listed first.
   **   ~~~   ** Demand-to-Supply interface energy check value iteration history trace: 2966.005092,1048.990950,743.993915,4758.989957,2966.005092,1048.990950,743.993915,4758.989957,2966.005092,1048.990950,
   **   ~~~   ** Supply-to-demand interface deck 1 energy check value iteration history trace: 21.401128,12.094550,-60.854199,93.575110,21.401128,12.094550,-60.854199,93.575110,21.401128,12.094550,
   **   ~~~   ** Node named SPACE1-1 IN NODE shows oscillating mass flow rate across iterations with a repeated value of 0.530032
   **   ~~~   ** Node named SPACE1-1 IN NODE mass flow rate [kg/s] iteration history trace (most recent first): 0.530032,0.261559,0.530032,0.261559,0.530032,0.261559,0.530032,0.261559,0.530032,0.261559,
   **   ~~~   ** Node named SPACE1-1 IN NODE shows oscillating temperatures across iterations with a repeated value of 14.900956
   **   ~~~   ** Node named SPACE1-1 IN NODE temperature [C] iteration history trace (most recent first): 14.900956,14.790729,14.900956,14.790729,14.900956,14.790729,14.900956,14.790729,14.900956,14.790729,
   ** Warning ** SimHVAC: Maximum iterations (20) exceeded for all HVAC loops, at Pittsburgh Allegheny Co Ap PA USA TMY3 WMO#=725205, 05/06 04:30 - 04:45
   **   ~~~   ** The solution for one or more of the Air Loop HVAC systems did not appear to converge
   **   ~~~   ** Air System Named = VAV SYS 1 did not converge for mass flow rate
   **   ~~~   ** Check values should be zero. Most Recent values listed first.
   **   ~~~   ** Demand-to-Supply interface mass flow rate check value iteration history trace: 9.633177E-002,3.656068E-002,7.380139E-002,0.632062,0.425368,9.633177E-002,3.656068E-002,7.380139E-002,0.632062,0.425368,
   **   ~~~   ** Supply-to-demand interface deck 1 mass flow rate check value iteration history trace: 0.000000,0.000000,0.000000,0.000000,0.000000,0.000000,0.000000,0.000000,0.000000,0.000000,
   **   ~~~   ** Air System Named = VAV SYS 1 did not converge for temperature
   **   ~~~   ** Check values should be zero. Most Recent values listed first.
   **   ~~~   ** Demand-to-Supply interface temperature check value iteration history trace: 0.000000,0.000000,0.000000,0.000000,0.000000,0.000000,0.000000,0.000000,0.000000,0.000000,
   **   ~~~   ** Supply-to-demand interface deck 1 temperature check value iteration history trace: 3.351319E-002,1.939711E-002,0.497926,0.357958,8.705818E-002,3.351319E-002,1.939711E-002,0.497926,0.357958,8.705818E-002,
   **   ~~~   ** Air System Named = VAV SYS 1 did not converge for energy
   **   ~~~   ** Check values should be zero. Most Recent values listed first.
   **   ~~~   ** Demand-to-Supply interface energy check value iteration history trace: 1442.077761,547.310024,1104.800091,9461.903319,6367.715442,1442.077761,547.310024,1104.800091,9461.903319,6367.715442,
   **   ~~~   ** Supply-to-demand interface deck 1 energy check value iteration history trace: 9.755063,4.933528,-89.718596,291.845571,33.768100,9.755063,4.933528,-89.718596,291.845571,33.768100,
   **   ~~~   ** Node named SPACE1-1 IN NODE shows oscillating mass flow rate across iterations with a repeated value of 0.386010
   **   ~~~   ** Node named SPACE1-1 IN NODE mass flow rate [kg/s] iteration history trace (most recent first): 0.386010,0.289678,0.253117,0.179316,0.811378,0.386010,0.289678,0.253117,0.179316,0.811378,
   **   ~~~   ** Node named SPACE1-1 IN NODE shows oscillating temperatures across iterations with a repeated value of 14.945064
   **   ~~~   ** Node named SPACE1-1 IN NODE temperature [C] iteration history trace (most recent first): 14.945064,14.911551,14.892154,15.390080,15.032122,14.945064,14.911551,14.892154,15.390080,15.032122,
   ** Warning ** SimHVAC: Maximum iterations (20) exceeded for all HVAC loops, at Pittsburgh Allegheny Co Ap PA USA TMY3 WMO#=725205, 05/25 05:15 - 05:30
   **   ~~~   ** The solution for one or more of the Air Loop HVAC systems did not appear to converge
   **   ~~~   ** Air System Named = VAV SYS 1 did not converge for mass flow rate
   **   ~~~   ** Check values should be zero. Most Recent values listed first.
   **   ~~~   ** Demand-to-Supply interface mass flow rate check value iteration history trace: 0.375005,0.223046,6.742036E-002,3.645603E-002,2.590288E-002,2.217959E-002,0.375005,0.223046,6.742036E-002,3.645603E-002,
   **   ~~~   ** Supply-to-demand interface deck 1 mass flow rate check value iteration history trace: 1.110223E-016,0.000000,0.000000,0.000000,0.000000,0.000000,0.000000,0.000000,0.000000,5.551115E-017,
   **   ~~~   ** Air System Named = VAV SYS 1 did not converge for temperature
   **   ~~~   ** Check values should be zero. Most Recent values listed first.
   **   ~~~   ** Demand-to-Supply interface temperature check value iteration history trace: 0.000000,0.000000,0.000000,0.000000,0.000000,0.000000,0.000000,0.000000,0.000000,0.000000,
   **   ~~~   ** Supply-to-demand interface deck 1 temperature check value iteration history trace: 0.191829,6.034300E-002,3.304961E-002,2.364867E-002,2.035023E-002,0.329221,0.191829,6.034300E-002,3.304961E-002,2.364867E-002,
   **   ~~~   ** Air System Named = VAV SYS 1 did not converge for energy
   **   ~~~   ** Check values should be zero. Most Recent values listed first.
   **   ~~~   ** Demand-to-Supply interface energy check value iteration history trace: 5644.834724,3357.446819,1014.857029,548.760849,389.907811,333.862215,5644.834724,3357.446819,1014.857029,548.760849,
   **   ~~~   ** Supply-to-demand interface deck 1 energy check value iteration history trace: 124.948199,25.779994,11.880585,7.634850,6.040281,-90.380751,124.948199,25.779994,11.880585,7.634850,
   ** Warning ** SimHVAC: Maximum iterations (20) exceeded for all HVAC loops, at Pittsburgh Allegheny Co Ap PA USA TMY3 WMO#=725205, 09/14 06:15 - 06:30
   **   ~~~   ** The solution for one or more of the Air Loop HVAC systems did not appear to converge
   **   ~~~   ** Air System Named = VAV SYS 1 did not converge for mass flow rate
   **   ~~~   ** Check values should be zero. Most Recent values listed first.
   **   ~~~   ** Demand-to-Supply interface mass flow rate check value iteration history trace: 0.220097,0.141663,0.584797,0.223037,0.220097,0.141663,0.584797,0.223037,0.220097,0.141663,
   **   ~~~   ** Supply-to-demand interface deck 1 mass flow rate check value iteration history trace: 5.551115E-017,0.000000,1.110223E-016,0.000000,5.551115E-017,0.000000,1.110223E-016,0.000000,5.551115E-017,0.000000,
   **   ~~~   ** Air System Named = VAV SYS 1 did not converge for temperature
   **   ~~~   ** Check values should be zero. Most Recent values listed first.
   **   ~~~   ** Demand-to-Supply interface temperature check value iteration history trace: 0.000000,0.000000,0.000000,0.000000,0.000000,0.000000,0.000000,0.000000,0.000000,0.000000,
   **   ~~~   ** Supply-to-demand interface deck 1 temperature check value iteration history trace: 0.129093,0.502892,0.182050,0.191750,0.129093,0.502892,0.182050,0.191750,0.129093,0.502892,
   **   ~~~   ** Air System Named = VAV SYS 1 did not converge for energy
   **   ~~~   ** Check values should be zero. Most Recent values listed first.
   **   ~~~   ** Demand-to-Supply interface energy check value iteration history trace: 3314.570751,2133.384900,8806.795966,3358.840315,3314.570751,2133.384900,8806.795966,3358.840315,3314.570751,2133.384900,
   **   ~~~   ** Supply-to-demand interface deck 1 energy check value iteration history trace: 47.767848,-114.497783,148.426413,113.360958,47.767848,-114.497783,148.426413,113.360958,47.767848,-114.497783,
   **   ~~~   ** Node named SPACE1-1 IN NODE shows oscillating mass flow rate across iterations with a repeated value of 0.588341
   **   ~~~   ** Node named SPACE1-1 IN NODE mass flow rate [kg/s] iteration history trace (most recent first): 0.588341,0.226581,0.588341,0.226581,0.588341,0.226581,0.588341,0.226581,0.588341,0.226581,
   **   ~~~   ** Node named SPACE1-1 IN NODE shows oscillating temperatures across iterations with a repeated value of 14.850346
   **   ~~~   ** Node named SPACE1-1 IN NODE temperature [C] iteration history trace (most recent first): 14.850346,15.224146,14.850346,15.224146,14.850346,15.224146,14.850346,15.224146,14.850346,15.224146,
   ** Warning ** SimHVAC: Maximum iterations (20) exceeded for all HVAC loops, at Pittsburgh Allegheny Co Ap PA USA TMY3 WMO#=725205, 09/21 05:45 - 06:00
   **   ~~~   ** The solution for one or more of the Air Loop HVAC systems did not appear to converge
   **   ~~~   ** Air System Named = VAV SYS 1 did not converge for mass flow rate
   **   ~~~   ** Check values should be zero. Most Recent values listed first.
   **   ~~~   ** Demand-to-Supply interface mass flow rate check value iteration history trace: 0.470853,0.229617,7.810233E-002,4.618450E-002,3.650234E-002,3.604714E-002,4.439924E-002,0.470853,0.229617,7.810233E-002,
   **   ~~~   ** Supply-to-demand interface deck 1 mass flow rate check value iteration history trace: 1.110223E-016,0.000000,0.000000,0.000000,0.000000,0.000000,0.000000,0.000000,0.000000,0.000000,
   **   ~~~   ** Air System Named = VAV SYS 1 did not converge for temperature
   **   ~~~   ** Check values should be zero. Most Recent values listed first.
   **   ~~~   ** Demand-to-Supply interface temperature check value iteration history trace: 0.000000,0.000000,0.000000,0.000000,0.000000,0.000000,0.000000,0.000000,0.000000,0.000000,
   **   ~~~   ** Supply-to-demand interface deck 1 temperature check value iteration history trace: 0.193172,6.864608E-002,4.125697E-002,3.293689E-002,3.278933E-002,4.069626E-002,0.409497,0.193172,6.864608E-002,4.125697E-002,
   **   ~~~   ** Air System Named = VAV SYS 1 did not converge for energy
   **   ~~~   ** Check values should be zero. Most Recent values listed first.
   **   ~~~   ** Demand-to-Supply interface energy check value iteration history trace: 7091.593496,3458.305451,1176.311962,695.592312,549.767742,542.911859,668.704170,7091.593496,3458.305451,1176.311962,
   **   ~~~   ** Supply-to-demand interface deck 1 energy check value iteration history trace: 137.612120,33.063609,16.633683,11.750712,10.495380,11.552184,-97.971846,137.612120,33.063609,16.633683,
   **   ~~~   ** Node named SPACE1-1 IN NODE shows oscillating mass flow rate across iterations with a repeated value of 0.238096
   **   ~~~   ** Node named SPACE1-1 IN NODE mass flow rate [kg/s] iteration history trace (most recent first): 0.238096,0.282495,0.318542,0.355045,0.401229,0.479331,0.708949,0.238096,0.282495,0.318542,
   **   ~~~   ** Node named SPACE1-1 IN NODE shows oscillating temperatures across iterations with a repeated value of 15.142650
   **   ~~~   ** Node named SPACE1-1 IN NODE temperature [C] iteration history trace (most recent first): 15.142650,14.733153,14.773849,14.806639,14.839576,14.880833,14.949479,15.142650,14.733153,14.773849,
   ** Warning ** SimHVAC: Maximum iterations (20) exceeded for all HVAC loops, at Pittsburgh Allegheny Co Ap PA USA TMY3 WMO#=725205, 09/25 01:00 - 01:15
   **   ~~~   ** The solution for one or more of the Air Loop HVAC systems did not appear to converge
   **   ~~~   ** Air System Named = VAV SYS 1 did not converge for mass flow rate
   **   ~~~   ** Check values should be zero. Most Recent values listed first.
   **   ~~~   ** Demand-to-Supply interface mass flow rate check value iteration history trace: 0.283829,6.968872E-002,3.742663E-002,0.390945,0.283829,6.968872E-002,3.742663E-002,0.390945,0.283829,6.968872E-002,
   **   ~~~   ** Supply-to-demand interface deck 1 mass flow rate check value iteration history trace: 0.000000,0.000000,0.000000,0.000000,0.000000,0.000000,0.000000,0.000000,0.000000,0.000000,
   **   ~~~   ** Air System Named = VAV SYS 1 did not converge for temperature
   **   ~~~   ** Check values should be zero. Most Recent values listed first.
   **   ~~~   ** Demand-to-Supply interface temperature check value iteration history trace: 0.000000,0.000000,0.000000,0.000000,0.000000,0.000000,0.000000,0.000000,0.000000,0.000000,
   **   ~~~   ** Supply-to-demand interface deck 1 temperature check value iteration history trace: 6.307309E-002,3.425555E-002,0.342599,0.245270,6.307309E-002,3.425555E-002,0.342599,0.245270,6.307309E-002,3.425555E-002,
   **   ~~~   ** Air System Named = VAV SYS 1 did not converge for energy
   **   ~~~   ** Check values should be zero. Most Recent values listed first.
   **   ~~~   ** Demand-to-Supply interface energy check value iteration history trace: 4314.686923,1059.386396,568.948073,5943.021392,4314.686923,1059.386396,568.948073,5943.021392,4314.686923,1059.386396,
   **   ~~~   ** Supply-to-demand interface deck 1 energy check value iteration history trace: 22.903415,10.040257,-87.530818,159.015803,22.903415,10.040257,-87.530818,159.015803,22.903415,10.040257,
   **   ~~~   ** Node named SPACE1-1 IN NODE shows oscillating mass flow rate across iterations with a repeated value of 0.645204
   **   ~~~   ** Node named SPACE1-1 IN NODE mass flow rate [kg/s] iteration history trace (most recent first): 0.645204,0.291686,0.645204,0.291686,0.645204,0.291686,0.645204,0.291686,0.645204,0.291686,
   **   ~~~   ** Node named SPACE1-1 IN NODE shows oscillating temperatures across iterations with a repeated value of 14.995667
   **   ~~~   ** Node named SPACE1-1 IN NODE temperature [C] iteration history trace (most recent first): 14.995667,14.898339,14.995667,14.898339,14.995667,14.898339,14.995667,14.898339,14.995667,14.898339,
   ** Warning ** SimHVAC: Maximum iterations (20) exceeded for all HVAC loops, at Pittsburgh Allegheny Co Ap PA USA TMY3 WMO#=725205, 10/27 01:30 - 01:35
   **   ~~~   ** The solution for one or more of the Air Loop HVAC systems did not appear to converge
   **   ~~~   ** Air System Named = VAV SYS 1 did not converge for mass flow rate
   **   ~~~   ** Check values should be zero. Most Recent values listed first.
   **   ~~~   ** Demand-to-Supply interface mass flow rate check value iteration history trace: 1.687564E-002,1.662584E-002,1.644544E-002,1.620296E-002,1.602646E-002,1.579107E-002,1.561840E-002,1.538986E-002,1.522095E-002,1.499904E-002,
   **   ~~~   ** Supply-to-demand interface deck 1 mass flow rate check value iteration history trace: 0.000000,0.000000,0.000000,0.000000,0.000000,0.000000,0.000000,0.000000,0.000000,0.000000,
   **   ~~~   ** Air System Named = VAV SYS 1 did not converge for temperature
   **   ~~~   ** Check values should be zero. Most Recent values listed first.
   **   ~~~   ** Demand-to-Supply interface temperature check value iteration history trace: 0.000000,0.000000,0.000000,0.000000,0.000000,0.000000,0.000000,0.000000,0.000000,0.000000,
   **   ~~~   ** Supply-to-demand interface deck 1 temperature check value iteration history trace: 6.162793E-002,6.084760E-002,6.007716E-002,5.931647E-002,5.856541E-002,5.782387E-002,5.709171E-002,5.636882E-002,5.565508E-002,5.495039E-002,
   **   ~~~   ** Air System Named = VAV SYS 1 did not converge for energy
   **   ~~~   ** Check values should be zero. Most Recent values listed first.
   **   ~~~   ** Demand-to-Supply interface energy check value iteration history trace: 255.983348,252.194149,249.457676,245.779610,243.102315,239.531704,236.912529,233.445843,230.883739,227.517583,
   **   ~~~   ** Supply-to-demand interface deck 1 energy check value iteration history trace: 6.089936,-7.029369,5.947583,-6.838033,5.808308,-6.652288,5.672057,-6.471948,5.538774,-6.296839,
   **   ~~~   ** Node named SPACE1-1 IN NODE shows monotonically increasing temperatures with a trend rate across iterations of 1.7048E-003 [C/iteration]
   **   ~~~   ** Node named SPACE1-1 IN NODE temperature [C] iteration history trace (most recent first): 14.718972,14.716690,14.714575,14.712616,14.710801,14.709120,14.707563,14.706120,14.704784,14.703545,
   ** Warning ** SimHVAC: Maximum iterations (20) exceeded for all HVAC loops, at Pittsburgh Allegheny Co Ap PA USA TMY3 WMO#=725205, 10/29 02:45 - 03:00
   **   ~~~   ** The solution for one or more of the Air Loop HVAC systems did not appear to converge
   **   ~~~   ** Air System Named = VAV SYS 1 did not converge for mass flow rate
   **   ~~~   ** Check values should be zero. Most Recent values listed first.
   **   ~~~   ** Demand-to-Supply interface mass flow rate check value iteration history trace: 1.186573E-002,1.246805E-002,1.394848E-002,1.674462E-002,2.189450E-002,3.207641E-002,5.587359E-002,0.594653,4.109193E-002,0.198882,
   **   ~~~   ** Supply-to-demand interface deck 1 mass flow rate check value iteration history trace: 0.000000,5.551115E-017,0.000000,0.000000,0.000000,0.000000,0.000000,0.000000,0.000000,0.000000,
   **   ~~~   ** Air System Named = VAV SYS 1 did not converge for temperature
   **   ~~~   ** Check values should be zero. Most Recent values listed first.
   **   ~~~   ** Demand-to-Supply interface temperature check value iteration history trace: 0.000000,0.000000,0.000000,0.000000,0.000000,0.000000,0.000000,0.000000,0.000000,0.000000,
   **   ~~~   ** Supply-to-demand interface deck 1 temperature check value iteration history trace: 1.124362E-002,1.261906E-002,1.520369E-002,1.996685E-002,2.941875E-002,5.163298E-002,0.514044,3.272346E-002,0.164450,6.040907E-002,
   **   ~~~   ** Air System Named = VAV SYS 1 did not converge for energy
   **   ~~~   ** Check values should be zero. Most Recent values listed first.
   **   ~~~   ** Demand-to-Supply interface energy check value iteration history trace: 178.396419,187.452050,209.709608,251.748423,329.174816,482.255703,840.036492,8940.365338,617.800339,2990.116135,
   **   ~~~   ** Supply-to-demand interface deck 1 energy check value iteration history trace: 4.177243,4.530150,5.244917,6.552137,9.006559,14.143228,-111.945649,26.679697,127.287111,34.685141,
   ** Warning ** SimHVAC: Maximum iterations (20) exceeded for all HVAC loops, at Pittsburgh Allegheny Co Ap PA USA TMY3 WMO#=725205, 10/29 04:30 - 04:45
   **   ~~~   ** The solution for one or more of the Air Loop HVAC systems did not appear to converge
   **   ~~~   ** Air System Named = VAV SYS 1 did not converge for mass flow rate
   **   ~~~   ** Check values should be zero. Most Recent values listed first.
   **   ~~~   ** Demand-to-Supply interface mass flow rate check value iteration history trace: 0.542230,0.229734,0.166630,6.582809E-002,4.275330E-002,3.728402E-002,0.542230,0.229734,0.166630,6.582809E-002,
   **   ~~~   ** Supply-to-demand interface deck 1 mass flow rate check value iteration history trace: 1.110223E-016,0.000000,0.000000,0.000000,0.000000,0.000000,1.110223E-016,0.000000,0.000000,0.000000,
   **   ~~~   ** Air System Named = VAV SYS 1 did not converge for temperature
   **   ~~~   ** Check values should be zero. Most Recent values listed first.
   **   ~~~   ** Demand-to-Supply interface temperature check value iteration history trace: 0.000000,0.000000,0.000000,0.000000,0.000000,0.000000,0.000000,0.000000,0.000000,0.000000,
   **   ~~~   ** Supply-to-demand interface deck 1 temperature check value iteration history trace: 0.188488,0.144976,5.909375E-002,3.888664E-002,3.420478E-002,0.465649,0.188488,0.144976,5.909375E-002,3.888664E-002,
   **   ~~~   ** Air System Named = VAV SYS 1 did not converge for energy
   **   ~~~   ** Check values should be zero. Most Recent values listed first.
   **   ~~~   ** Demand-to-Supply interface energy check value iteration history trace: 8138.934537,3448.339481,2501.136954,988.087836,641.732385,559.637881,8138.934537,3448.339481,2501.136954,988.087836,
   **   ~~~   ** Supply-to-demand interface deck 1 energy check value iteration history trace: 153.675477,84.732825,24.643491,13.644417,10.532211,-125.935531,153.675477,84.732825,24.643491,13.644417,
   ** Warning ** SimHVAC: Maximum iterations (20) exceeded for all HVAC loops, at Pittsburgh Allegheny Co Ap PA USA TMY3 WMO#=725205, 10/30 04:15 - 04:30
   **   ~~~   ** The solution for one or more of the Air Loop HVAC systems did not appear to converge
   **   ~~~   ** Air System Named = VAV SYS 1 did not converge for mass flow rate
   **   ~~~   ** Check values should be zero. Most Recent values listed first.
   **   ~~~   ** Demand-to-Supply interface mass flow rate check value iteration history trace: 0.143207,6.799588E-002,0.554469,0.343266,0.143207,6.799588E-002,0.554469,0.343266,0.143207,6.799588E-002,
   **   ~~~   ** Supply-to-demand interface deck 1 mass flow rate check value iteration history trace: 0.000000,0.000000,0.000000,0.000000,0.000000,0.000000,0.000000,0.000000,0.000000,0.000000,
   **   ~~~   ** Air System Named = VAV SYS 1 did not converge for temperature
   **   ~~~   ** Check values should be zero. Most Recent values listed first.
   **   ~~~   ** Demand-to-Supply interface temperature check value iteration history trace: 0.000000,0.000000,0.000000,0.000000,0.000000,0.000000,0.000000,0.000000,0.000000,0.000000,
   **   ~~~   ** Supply-to-demand interface deck 1 temperature check value iteration history trace: 6.209431E-002,0.475095,0.285430,0.127571,6.209431E-002,0.475095,0.285430,0.127571,6.209431E-002,0.475095,
   **   ~~~   ** Air System Named = VAV SYS 1 did not converge for energy
   **   ~~~   ** Check values should be zero. Most Recent values listed first.
   **   ~~~   ** Demand-to-Supply interface energy check value iteration history trace: 2153.173609,1022.346308,8336.670610,5161.150693,2153.173609,1022.346308,8336.670610,5161.150693,2153.173609,1022.346308,
   **   ~~~   ** Supply-to-demand interface deck 1 energy check value iteration history trace: 20.272448,-122.647220,232.713208,60.006559,20.272448,-122.647220,232.713208,60.006559,20.272448,-122.647220,
   **   ~~~   ** Node named SPACE1-1 IN NODE shows oscillating mass flow rate across iterations with a repeated value of 0.468111
   **   ~~~   ** Node named SPACE1-1 IN NODE mass flow rate [kg/s] iteration history trace (most recent first): 0.468111,0.256909,0.468111,0.256909,0.468111,0.256909,0.468111,0.256909,0.468111,0.256909,
   **   ~~~   ** Node named SPACE1-1 IN NODE shows oscillating temperatures across iterations with a repeated value of 14.902619
   **   ~~~   ** Node named SPACE1-1 IN NODE temperature [C] iteration history trace (most recent first): 14.902619,15.315619,14.902619,15.315619,14.902619,15.315619,14.902619,15.315619,14.902619,15.315619,
   ** Warning ** SimHVAC: Maximum iterations (20) exceeded for all HVAC loops, at Pittsburgh Allegheny Co Ap PA USA TMY3 WMO#=725205, 10/30 04:45 - 05:00
   **   ~~~   ** The solution for one or more of the Air Loop HVAC systems did not appear to converge
   **   ~~~   ** Air System Named = VAV SYS 1 did not converge for mass flow rate
   **   ~~~   ** Check values should be zero. Most Recent values listed first.
   **   ~~~   ** Demand-to-Supply interface mass flow rate check value iteration history trace: 0.145098,0.137485,0.622184,0.339601,0.145098,0.137485,0.622184,0.339601,0.145098,0.137485,
   **   ~~~   ** Supply-to-demand interface deck 1 mass flow rate check value iteration history trace: 0.000000,0.000000,0.000000,5.551115E-017,0.000000,0.000000,0.000000,5.551115E-017,0.000000,0.000000,
   **   ~~~   ** Air System Named = VAV SYS 1 did not converge for temperature
   **   ~~~   ** Check values should be zero. Most Recent values listed first.
   **   ~~~   ** Demand-to-Supply interface temperature check value iteration history trace: 0.000000,0.000000,0.000000,0.000000,0.000000,0.000000,0.000000,0.000000,0.000000,0.000000,
   **   ~~~   ** Supply-to-demand interface deck 1 temperature check value iteration history trace: 9.875261E-002,0.510222,0.282281,0.129189,9.875261E-002,0.510222,0.282281,0.129189,9.875261E-002,0.510222,
   **   ~~~   ** Air System Named = VAV SYS 1 did not converge for energy
   **   ~~~   ** Check values should be zero. Most Recent values listed first.
   **   ~~~   ** Demand-to-Supply interface energy check value iteration history trace: 2180.602061,2066.188388,9350.480688,5103.690239,2180.602061,2066.188388,9350.480688,5103.690239,2180.602061,2066.188388,
   **   ~~~   ** Supply-to-demand interface deck 1 energy check value iteration history trace: 32.416623,-96.998452,230.145719,61.243574,32.416623,-96.998452,230.145719,61.243574,32.416623,-96.998452,
   **   ~~~   ** Node named SPACE1-1 IN NODE shows oscillating mass flow rate across iterations with a repeated value of 0.471776
   **   ~~~   ** Node named SPACE1-1 IN NODE mass flow rate [kg/s] iteration history trace (most recent first): 0.471776,0.189194,0.471776,0.189194,0.471776,0.189194,0.471776,0.189194,0.471776,0.189194,
   **   ~~~   ** Node named SPACE1-1 IN NODE shows oscillating temperatures across iterations with a repeated value of 14.837379
   **   ~~~   ** Node named SPACE1-1 IN NODE temperature [C] iteration history trace (most recent first): 14.837379,15.248849,14.837379,15.248849,14.837379,15.248849,14.837379,15.248849,14.837379,15.248849,
   ** Warning ** SimHVAC: Maximum iterations (20) exceeded for all HVAC loops, at Pittsburgh Allegheny Co Ap PA USA TMY3 WMO#=725205, 11/03 00:00 - 00:15
   **   ~~~   ** The solution for one or more of the Air Loop HVAC systems did not appear to converge
   **   ~~~   ** Air System Named = VAV SYS 1 did not converge for mass flow rate
   **   ~~~   ** Check values should be zero. Most Recent values listed first.
   **   ~~~   ** Demand-to-Supply interface mass flow rate check value iteration history trace: 2.583378E-002,2.604013E-002,2.616807E-002,2.637773E-002,2.650693E-002,2.671998E-002,2.685044E-002,2.706693E-002,2.719867E-002,2.741867E-002,
   **   ~~~   ** Supply-to-demand interface deck 1 mass flow rate check value iteration history trace: 0.000000,0.000000,0.000000,0.000000,0.000000,0.000000,0.000000,0.000000,0.000000,0.000000,
   **   ~~~   ** Air System Named = VAV SYS 1 did not converge for temperature
   **   ~~~   ** Check values should be zero. Most Recent values listed first.
   **   ~~~   ** Demand-to-Supply interface temperature check value iteration history trace: 0.000000,0.000000,0.000000,0.000000,0.000000,0.000000,0.000000,0.000000,0.000000,0.000000,
   **   ~~~   ** Supply-to-demand interface deck 1 temperature check value iteration history trace: 9.429846E-002,9.488959E-002,9.548443E-002,9.608300E-002,9.668532E-002,9.729142E-002,9.790132E-002,9.851504E-002,9.913260E-002,9.975404E-002,
   **   ~~~   ** Air System Named = VAV SYS 1 did not converge for energy
   **   ~~~   ** Check values should be zero. Most Recent values listed first.
   **   ~~~   ** Demand-to-Supply interface energy check value iteration history trace: 394.981258,398.136227,400.092327,403.297977,405.273315,408.530622,410.525327,413.835288,415.849488,419.213125,
   **   ~~~   ** Supply-to-demand interface deck 1 energy check value iteration history trace: 8.998740,-11.538057,9.099640,-11.703412,9.201533,-11.871432,9.304424,-12.042167,9.408321,-12.215672,
   **   ~~~   ** Node named SPACE1-1 IN NODE shows monotonically decreasing temperature with a trend rate across iterations of -2.0934E-003 [C/iteration]
   **   ~~~   ** Node named SPACE1-1 IN NODE temperature [C] iteration history trace (most recent first): 14.764340,14.766136,14.768000,14.769936,14.771945,14.774032,14.776198,14.778447,14.780781,14.783205,
   ** Severe  ** ExternalInterface: Received end of simulation flag at time = 8760.00 hours.
   ************* Simulation Error Summary *************
   ************* There are 4 unused schedules in input.
   ************* Use Output:Diagnostics,DisplayUnusedSchedules; to see them.
   *************
   ************* ===== Recurring Surface Error Summary =====
   ************* The following surface error messages occurred.
   *************
   ************* Base Surface does not surround subsurface errors occuring...
   ************* Check that the GlobalGeometryRules object is expressing the proper starting corner and direction [CounterClockwise/Clockwise]
   *************
   ** Warning ** Base surface does not surround subsurface (CHKSBS), Overlap Status=Partial-Overlap
   **   ~~~   **   The base surround errors occurred 1 times.
   **   ~~~   ** Surface "FRONT-1" overlaps SubSurface "DF-1"
   *************
   **   ~~~   **   The base surround errors occurred 1 times (total).
   *************
   *************
   ************* ===== Recurring Error Summary =====
   ************* The following recurring error messages occurred.
   *************
   *************  ** Warning ** SimHVAC: Exceeding Maximum iterations for all HVAC loops, during Pittsburgh Allegheny Co Ap PA USA TMY3 WMO#=725205 continues
   *************  **   ~~~   **   This error occurred 2 total times;
   *************  **   ~~~   **   during Warmup 0 times;
   *************  **   ~~~   **   during Sizing 0 times.
   *************
   *************
   ************* ===== Final Error Summary =====
   ************* The following error categories occurred.  Consider correcting or noting.
   ************* Nominally Unused Constructions
   ************* ..The nominally unused constructions warning is provided to alert you to potential conditions that can cause
   ************* ..extra time during simulation. Each construction is calculated by the algorithm indicated in the HeatBalanceAlgorithm
   ************* ..object. You may remove the constructions indicated (when you use the DisplayExtraWarnings option).
   *************
   ************* EnergyPlus Warmup Error Summary. During Warmup: 0 Warning; 0 Severe Errors.
   ************* EnergyPlus Sizing Error Summary. During Sizing: 2 Warning; 0 Severe Errors.
   ************* EnergyPlus Completed Successfully-- 19 Warning; 1 Severe Errors; Elapsed Time=00hr 00min 14.44sec
