  0
SECTION
  2
ENTITIES
999
DXF created from EnergyPlus
999
Program Version,EnergyPlus, Version 8.6.0-198c6a3cff, YMD=2021.06.29 21:35
999
Polygon Action,ThickPolyline
999
Color Scheme,Default
999
Text - True North
  0
TEXT
  8
1
  6
Continuous
 62
  3
 10
      -11.00000
 20
       -1.00000
 30
        0.10000
 40
 .25
  1
True North
 41
 0.0
  7
MONOTXT
210
0.0
220
0.0
230
1.0
999
Text - Building Title
  0
TEXT
  8
1
  6
Continuous
 62
  3
 10
      -14.00000
 20
       -5.00000
 30
        0.10000
 40
 .4
  1
Building - Building
 41
 0.0
  7
MONOTXT
210
0.0
220
0.0
230
1.0
999
North Arrow Stem
  0
3DFACE
  8
1
 62
  3
 10
      -10.00000
 20
       -1.00000
 30
        0.10000
 11
      -10.00000
 21
       -1.00000
 31
        0.00000
 12
      -10.00000
 22
       -4.00000
 32
        0.00000
 13
      -10.00000
 23
       -4.00000
 33
        0.10000
999
North Arrow Head 1
  0
3DFACE
  8
1
 62
  3
 10
      -10.00000
 20
       -1.00000
 30
        0.10000
 11
      -10.00000
 21
       -1.00000
 31
        0.00000
 12
      -10.50000
 22
       -1.86602
 32
        0.00000
 13
      -10.50000
 23
       -1.86602
 33
        0.10000
999
North Arrow Head 2
  0
3DFACE
  8
1
 62
  3
 10
      -10.00000
 20
       -1.00000
 30
        0.10000
 11
      -10.00000
 21
       -1.00000
 31
        0.00000
 12
       -9.50000
 22
       -1.86602
 32
        0.00000
 13
       -9.50000
 23
       -1.86602
 33
        0.10000
999
North Arrow Side 1
  0
3DFACE
  8
1
 62
  3
 10
      -10.50000
 20
        0.50000
 30
        0.10000
 11
      -10.50000
 21
        0.50000
 31
        0.00000
 12
      -10.50000
 22
       -0.50000
 32
        0.00000
 13
      -10.50000
 23
       -0.50000
 33
        0.10000
999
North Arrow Side 2
  0
3DFACE
  8
1
 62
  3
 10
      -10.50000
 20
        0.50000
 30
        0.10000
 11
      -10.50000
 21
        0.50000
 31
        0.00000
 12
       -9.50000
 22
       -0.50000
 32
        0.00000
 13
       -9.50000
 23
       -0.50000
 33
        0.10000
999
North Arrow Side 3
  0
3DFACE
  8
1
 62
  3
 10
       -9.50000
 20
        0.50000
 30
        0.10000
 11
       -9.50000
 21
        0.50000
 31
        0.00000
 12
       -9.50000
 22
       -0.50000
 32
        0.00000
 13
       -9.50000
 23
       -0.50000
 33
        0.10000
999
Zone Names
999
Zone=1:PLENUM-1
999
Zone=2:SPACE1-1
999
PLENUM-1:WALL-1PF
  0
3DFACE
  8
PLENUM-1
 62
 43
 10
        9.92820
 20
        1.19615
 30
        3.30000
 11
        9.92820
 21
        1.19615
 31
        2.70000
 12
        3.00000
 22
        5.19615
 32
        2.70000
 13
        3.00000
 23
        5.19615
 33
        3.30000
999
PLENUM-1:WALL-1PR
  0
3DFACE
  8
PLENUM-1
 62
 43
 10
        6.92820
 20
       -4.00000
 30
        3.30000
 11
        6.92820
 21
       -4.00000
 31
        2.70000
 12
        9.92820
 22
        1.19615
 32
        2.70000
 13
        9.92820
 23
        1.19615
 33
        3.30000
999
PLENUM-1:WALL-1PB
  0
3DFACE
  8
PLENUM-1
 62
 43
 10
        0.00000
 20
        0.00000
 30
        3.30000
 11
        0.00000
 21
        0.00000
 31
        2.70000
 12
        6.92820
 22
       -4.00000
 32
        2.70000
 13
        6.92820
 23
       -4.00000
 33
        3.30000
999
PLENUM-1:WALL-1PL
  0
3DFACE
  8
PLENUM-1
 62
 43
 10
        3.00000
 20
        5.19615
 30
        3.30000
 11
        3.00000
 21
        5.19615
 31
        2.70000
 12
        0.00000
 22
        0.00000
 32
        2.70000
 13
        0.00000
 23
        0.00000
 33
        3.30000
999
PLENUM-1:C1-1P
  0
3DFACE
  8
PLENUM-1
 62
  8
 10
        0.00000
 20
        0.00000
 30
        2.70000
 11
        3.00000
 21
        5.19615
 31
        2.70000
 12
        9.92820
 22
        1.19615
 32
        2.70000
 13
        6.92820
 23
       -4.00000
 33
        2.70000
999
PLENUM-1:TOP-1
  0
3DFACE
  8
PLENUM-1
 62
 15
 10
        3.00000
 20
        5.19615
 30
        3.30000
 11
        0.00000
 21
        0.00000
 31
        3.30000
 12
        6.92820
 22
       -4.00000
 32
        3.30000
 13
        9.92820
 23
        1.19615
 33
        3.30000
999
SPACE1-1:FRONT-1
  0
3DFACE
  8
SPACE1-1
 62
 43
 10
        9.92820
 20
        1.19615
 30
        2.70000
 11
        9.92820
 21
        1.19615
 31
        0.00000
 12
        3.00000
 22
        5.19615
 32
        0.00000
 13
        3.00000
 23
        5.19615
 33
        2.70000
999
SPACE1-1:WF-1
  0
3DFACE
  8
SPACE1-1
 62
143
 10
        7.67820
 20
       -2.70096
 30
        2.35000
 11
        7.67820
 21
       -2.70096
 31
        0.35000
 12
        9.17820
 22
       -0.10289
 32
        0.35000
 13
        9.17820
 23
       -0.10289
 33
        2.35000
999
SPACE1-1:DF-1
  0
3DFACE
  8
SPACE1-1
 62
143
 10
        2.92284
 20
       -1.68750
 30
        0.00000
 11
        2.92284
 21
       -1.68750
 31
        2.50000
 12
        4.00537
 22
       -2.31250
 32
        2.50000
 13
        4.00537
 23
       -2.31250
 33
        0.00000
999
SPACE1-1:SB12
  0
3DFACE
  8
SPACE1-1
 62
 43
 10
        6.92820
 20
       -4.00000
 30
        2.70000
 11
        6.92820
 21
       -4.00000
 31
        0.00000
 12
        9.92820
 22
        1.19615
 32
        0.00000
 13
        9.92820
 23
        1.19615
 33
        2.70000
999
SPACE1-1:SB14
  0
3DFACE
  8
SPACE1-1
 62
 43
 10
        0.00000
 20
        0.00000
 30
        2.70000
 11
        0.00000
 21
        0.00000
 31
        0.00000
 12
        6.92820
 22
       -4.00000
 32
        0.00000
 13
        6.92820
 23
       -4.00000
 33
        2.70000
999
SPACE1-1:SB15
  0
3DFACE
  8
SPACE1-1
 62
 43
 10
        3.00000
 20
        5.19615
 30
        2.70000
 11
        3.00000
 21
        5.19615
 31
        0.00000
 12
        0.00000
 22
        0.00000
 32
        0.00000
 13
        0.00000
 23
        0.00000
 33
        2.70000
999
SPACE1-1:F1-1
  0
3DFACE
  8
SPACE1-1
 62
  8
 10
        0.00000
 20
        0.00000
 30
        0.00000
 11
        3.00000
 21
        5.19615
 31
        0.00000
 12
        9.92820
 22
        1.19615
 32
        0.00000
 13
        6.92820
 23
       -4.00000
 33
        0.00000
999
SPACE1-1:C1-1
  0
3DFACE
  8
SPACE1-1
 62
 15
 10
        3.00000
 20
        5.19615
 30
        2.70000
 11
        0.00000
 21
        0.00000
 31
        2.70000
 12
        6.92820
 22
       -4.00000
 32
        2.70000
 13
        9.92820
 23
        1.19615
 33
        2.70000
  0
ENDSEC
  0
EOF
